reduced_networks/case141/74pct/case141_reduced.m
%% case141_reduced -- Opti-KRON reduction of case141
%
%   141 buses reduced to 37 super-nodes (73.8% reduction), 36 branches.
%   Loads are scenario 1 of 1.
%
%   Equivalent branches come from the Kron-reduced admittance matrix, so a
%   negative resistance is possible and is not an error -- an equivalent
%   branch stands in for eliminated network, not for a conductor.
%
%   Bus map -- each super-node and the original buses it represents:
%     1 <- 1
%     2 <- 2 33 34
%     3 <- 3 4
%     5 <- 5 35 36
%     6 <- 6 37
%     7 <- 7 88 111
%     8 <- 8
%     9 <- 9
%     10 <- 10 11 112 113
%     12 <- 12
%     13 <- 13 14 114 115 116 117
%     15 <- 15 16 118 119 120 121 131 132 133 134 135 136
%     17 <- 17 18 19 137
%     20 <- 20 21 22
%     23 <- 23 24 25 138 139
%     26 <- 26 27 28 29 30 31 32 140 141
%     38 <- 38 53
%     39 <- 39
%     40 <- 40
%     41 <- 41
%     42 <- 42 54 73 74
%     43 <- 43 75
%     44 <- 44 45 46 76 77 78
%     47 <- 47 48 83
%     49 <- 49 50 51 52 84 85 86 87
%     55 <- 55 56 57 60 61 62 63 69 70 71 72
%     58 <- 58 59
%     64 <- 64 65 66 67 68
%     79 <- 79 80 81 82
%     89 <- 89 90
%     91 <- 91 92 101 102 107
%     93 <- 93 94 95 108 110
%     96 <- 96 97 98 99 100
%     103 <- 103 104 105 106
%     109 <- 109
%     122 <- 122 123 124 125
%     126 <- 126 127 128 129 130

function mpc = case141_reduced
mpc.version = '2';
mpc.baseMVA = 1;

%% bus data
%	bus_i	type	Pd	Qd	Gs	Bs	area	Vm	Va	baseKV	zone	Vmax	Vmin
mpc.bus = [
	1	3	-0	-0	0	0	1	1	0	1	1	1.1	0.9;
	2	1	0.012750000000000001	0.0079017403146395531	8.8514561191950128e-13	-1.3341604693279231e-12	1	1	0	1	1	1.1	0.9;
	3	1	-0	-0	-2.7284841053187847e-12	3.4106051316484809e-13	1	1	0	1	1	1.1	0.9;
	5	1	0.038250000000000006	0.023705220943918658	-5.032586400136762e-11	8.4834367154842562e-13	1	1	0	1	1	1.1	0.9;
	6	1	0.0042500000000000003	0.0026339134382131848	9.3804357791808252e-13	-1.1903314778000968e-13	1	1	0	1	1	1.1	0.9;
	7	1	0.0085000000000000006	0.0052678268764263687	7.7229997322949205e-11	-9.3282432570544456e-12	1	1	0	1	1	1.1	0.9;
	8	1	0.0063750000000000005	0.0039508701573197766	0	0	1	1	0	1	1	1.1	0.9;
	9	1	0.00085000000000000006	0.0005267826876426369	0	0	1	1	0	1	1	1.1	0.9;
	10	1	0.048874999999999995	0.030290004539451625	-2.4392919357786583e-12	-4.3100494776013809e-13	1	1	0	1	1	1.1	0.9;
	12	1	0.0021250000000000002	0.0013169567191065924	4.2632564145606011e-14	0	1	1	0	1	1	1.1	0.9;
	13	1	0.037400000000000003	0.023178438256276024	-5.7727512064588277e-13	1.3521255917721244e-12	1	1	0	1	1	1.1	0.9;
	15	1	0.031024999999999997	0.019227568098956246	9.535292796950231e-13	-4.2544195992866976e-13	1	1	0	1	1	1.1	0.9;
	17	1	0.017425000000000003	0.010799045096674056	1.6652035724359349e-11	8.3715518449018598e-12	1	1	0	1	1	1.1	0.9;
	20	1	0.012750000000000001	0.0079017403146395531	2.1276776341574589e-11	1.0093448683717217e-11	1	1	0	1	1	1.1	0.9;
	23	1	0.014875000000000001	0.0092186970337461462	-3.2326791150700552e-12	-9.2427751781664849e-12	1	1	0	1	1	1.1	0.9;
	26	1	0.057375000000000002	0.03555783141587799	4.6901999853623817e-11	-3.1366063702459312e-10	1	1	0	1	1	1.1	0.9;
	38	1	0.0085000000000000006	0.0052678268764263696	-7.050650019878561e-12	4.5282085063948494e-12	1	1	0	1	1	1.1	0.9;
	39	1	0.0017000000000000001	0.0010535653752852738	5.6843418860808015e-14	0	1	1	0	1	1	1.1	0.9;
	40	1	-0	-0	1.4210854715202004e-14	-1.4210854715202004e-14	1	1	0	1	1	1.1	0.9;
	41	1	0.0063750000000000005	0.0039508701573197766	-7.1054273576010019e-15	3.5527136788005009e-15	1	1	0	1	1	1.1	0.9;
	42	1	0.051000000000000004	0.031606961258558212	1.9782433325927992e-12	7.4681407004554564e-13	1	1	0	1	1	1.1	0.9;
	43	1	0.0038249999999999998	0.0023705220943918662	4.7994118540936608e-13	-7.561894207031887e-13	1	1	0	1	1	1.1	0.9;
	44	1	0.023375	0.014486523910172515	-5.4924385087436221e-12	1.9120889575582231e-12	1	1	0	1	1	1.1	0.9;
	47	1	0.017000000000000001	0.010535653752852737	-2.1728385757375832e-12	1.6305497622798268e-12	1	1	0	1	1	1.1	0.9;
	49	1	0.104125	0.064530879236223027	7.3319841187035169e-11	-3.0481781029922985e-10	1	1	0	1	1	1.1	0.9;
	55	1	0.10837500000000001	0.067164792674436202	-5.2620138240761489e-10	-8.8393923130729538e-11	1	1	0	1	1	1.1	0.9;
	58	1	0.038250000000000006	0.023705220943918658	2.048183173096477e-10	-3.4940823780078255e-11	1	1	0	1	1	1.1	0.9;
	64	1	0.070125000000000021	0.043459571730517545	-1.1163365445581418e-10	-7.774231012641432e-12	1	1	0	1	1	1.1	0.9;
	79	1	0.1192125	0.073881271941879822	2.1688697201413716e-13	-2.0922591149042058e-12	1	1	0	1	1	1.1	0.9;
	89	1	0.0055250000000000004	0.0034240874696771402	2.8472043229289205e-11	-3.3128084341010242e-12	1	1	0	1	1	1.1	0.9;
	91	1	0.043987499999999999	0.027261004085506458	-9.172758831316547e-14	-6.7238579969961734e-13	1	1	0	1	1	1.1	0.9;
	93	1	0.073099999999999998	0.045303311137266766	3.71712142489276e-12	6.4340913817660384e-13	1	1	0	1	1	1.1	0.9;
	96	1	0.063750000000000001	0.03950870157319776	3.1717555972616393e-12	2.2766053421954036e-12	1	1	0	1	1	1.1	0.9;
	103	1	0.048875000000000002	0.030290004539451625	-4.756196842450069e-13	1.0299339056978001e-12	1	1	0	1	1	1.1	0.9;
	109	1	0.063750000000000001	0.03950870157319776	7.5952389568469902e-13	5.9216025875369832e-13	1	1	0	1	1	1.1	0.9;
	122	1	0.019125	0.011852610471959332	2.7000623958883807e-13	-1.0658141036401503e-14	1	1	0	1	1	1.1	0.9;
	126	1	0.031662500000000003	0.019622655114688223	-2.3447910280083306e-13	6.1817218011128716e-13	1	1	0	1	1	1.1	0.9;
];

%% generator data
%	bus	Pg	Qg	Qmax	Qmin	Vg	mBase	status	Pmax	Pmin
mpc.gen = [
	1	0	0	9999	-9999	1	1	1	9999	-9999;
];

%% branch data
%	fbus	tbus	r	x	b	rateA	rateB	rateC	ratio	angle	status	angmin	angmax
mpc.branch = [
	1	2	0.0037105894563954295	0.0026302098573062925	0	0	0	0	0	0	1	-360	360;
	2	3	0.011093183383504531	0.0078649062481310397	0	0	0	0	0	0	1	-360	360;
	3	5	0.00064951392564287409	0.00045658899723409962	0	0	0	0	0	0	1	-360	360;
	5	6	0.00043729650439322201	0.00031511071640099832	0	0	0	0	0	0	1	-360	360;
	6	7	0.0030160597141238401	0.0040192693418494669	0	0	0	0	0	0	1	-360	360;
	6	38	0.013446867510091571	0.0097298472227491939	0	0	0	0	0	0	1	-360	360;
	7	8	0.004733091576961934	0.0063086451589669246	0	0	0	0	0	0	1	-360	360;
	7	89	0.0041350242988947338	0.0055047912905970345	0	0	0	0	0	0	1	-360	360;
	8	9	0.0041736092845764882	0.0029517514046542496	0	0	0	0	0	0	1	-360	360;
	9	10	0.0032604312901082884	0.002308668309958334	0	0	0	0	0	0	1	-360	360;
	10	12	0.009048179142371526	0.0063986767922243589	0	0	0	0	0	0	1	-360	360;
	12	13	0.0078906295719188765	0.0055690996000666224	0	0	0	0	0	0	1	-360	360;
	13	15	0.0092925507183559495	0.0065723092277922149	0	0	0	0	0	0	1	-360	360;
	15	17	0.0080899853312746024	0.0057298703737405947	0	0	0	0	0	0	1	-360	360;
	15	122	0.014700879544748646	0.010405084472179917	0	0	0	0	0	0	1	-360	360;
	17	20	0.010115697079566974	0.0070288982250243806	0	0	0	0	0	0	1	-360	360;
	20	23	0.0077234279672979394	0.0047845382245399106	0	0	0	0	0	0	1	-360	360;
	23	26	0.011639804013996877	0.0084179577095689056	0	0	0	0	0	0	1	-360	360;
	38	39	0.006032119428247682	0.0042636409178339156	0	0	0	0	0	0	1	-360	360;
	39	40	0.0022314983385948246	0.0015755535820049917	0	0	0	0	0	0	1	-360	360;
	40	41	0.0059035028093084993	0.004180040115523447	0	0	0	0	0	0	1	-360	360;
	41	42	0.014906666135051308	0.010546562753013005	0	0	0	0	0	0	1	-360	360;
	42	43	0.0077620129529796756	0.0054919296287031325	0	0	0	0	0	0	1	-360	360;
	42	55	0.0044244116915079052	0.0031318146711691126	0	0	0	0	0	0	1	-360	360;
	43	44	0.0028488581095029051	0.0020192809173451725	0	0	0	0	0	0	1	-360	360;
	44	47	0.0077234279672979498	0.0055626687691196818	0	0	0	0	0	0	1	-360	360;
	44	79	0.0072925622938516694	0.003871360230069417	0	0	0	0	0	0	1	-360	360;
	47	49	0.0073890247580582508	0.0051768189122978706	0	0	0	0	0	0	1	-360	360;
	55	58	0.015652642524900916	0.0110738908906622	0	0	0	0	0	0	1	-360	360;
	55	64	0.011151060862021302	0.0078906295718693068	0	0	0	0	0	0	1	-360	360;
	89	91	0.0032861546138961261	0.0043793958748791799	0	0	0	0	0	0	1	-360	360;
	89	96	0.0044179808605609352	0.0031253838402221456	0	0	0	0	0	0	1	-360	360;
	91	93	0.003826344413440705	0.0050996489409386196	0	0	0	0	0	0	1	-360	360;
	91	103	0.010919550947936637	0.0050803564480977241	0	0	0	0	0	0	1	-360	360;
	93	109	0.0081671553026381148	0.0046687832674923695	0	0	0	0	0	0	1	-360	360;
	122	126	0.018077065791902314	0.012906677710547054	0	0	0	0	0	0	1	-360	360;
];
